-------------------------------------------------------
          Amber 20 SANDER                              2020
          -------------------------------------------------------

  [-O]verwriting output

File Assignments:

 Here is the input file:

Stage 3 equilibration 6ns
 &cntrl
  imin = 0, irest = 1, ntx = 7,
  ntb = 2, pres0 = 1.0, ntp = 1,
  taup = 2.0,
  cut = 10.0, ntr = 0,
  ntc = 2, ntf = 2,
  tempi = 300.0, temp0 = 300.0,
  ntt = 3, ig = -1,
  gamma_ln = 1.0,
  nstlim = 6000000, dt = 0.001,
  ntpr = 1000, ntwx = 1000, ntwr = 1000
 /

--------------------------------------------------------------------------------
   1.  RESOURCE   USE:
--------------------------------------------------------------------------------

 getting box info from netcdf restart file
 NATOM  =    9449 NTYPES =       6 NBONH =    6286 MBONA  =      30
 NTHETH =    3183 MTHETA =      30 NPHIH =     140 MPHIA  =      10
 NHPARM =       0 NPARM  =       0 NNB   =   12742 NRES   =    3133
 NBONA  =      30 NTHETA =      30 NPHIA =      10 NUMBND =       4
 NUMANG =       5 NPTRA  =       4 NATYP =       6 NPHB   =       0
 IFBOX  =       1 NMXRS  =       8 IFCAP =       0 NEXTRA =       0
 NCOPY  =       0

     BOX TYPE: RECTILINEAR
Note: ig = -1. Setting random seed to   448629 based on wallclock time in microseconds
      and disabling the synchronization of random numbers between tasks
      to improve performance.

--------------------------------------------------------------------------------
   2.  CONTROL  DATA  FOR  THE  RUN
--------------------------------------------------------------------------------

default_name

General flags:
     imin    =       0, nmropt  =       0

Nature and format of input:
     ntx     =       7, irest   =       1, ntrx    =       1

Nature and format of output:
     ntxo    =       2, ntpr    =    1000, ntrx    =       1, ntwr    =    1000
     iwrap   =       0, ntwx    =    1000, ntwv    =       0, ntwe    =       0
     ioutfm  =       1, ntwprt  =       0, idecomp =       0, rbornstat=      0

Potential function:
     ntf     =       2, ntb     =       2, igb     =       0, nsnb    =      25
     ipol    =       0, gbsa    =       0, iesp    =       0
     dielc   =   1.00000, cut     =  10.00000, intdiel =   1.00000

Frozen or restrained atoms:
     ibelly  =       0, ntr     =       0

Molecular dynamics:
     nstlim  =   6000000, nscm    =      1000, nrespa  =         1
     t       =   0.00000, dt      =   0.00100, vlimit  =  20.00000

Langevin dynamics temperature regulation:
     ig      =  448629
     temp0   = 300.00000, tempi   = 300.00000, gamma_ln=   1.00000

Pressure regulation:
     ntp     =       1
     pres0   =   1.00000, comp    =  44.60000, taup    =   2.00000

SHAKE:
     ntc     =       2, jfastw  =       0
     tol     =   0.00001

Ewald parameters:
     verbose =       0, ew_type =       0, nbflag  =       1, use_pme =       1
     vdwmeth =       1, eedmeth =       1, netfrc  =       1
     Box X =   52.000   Box Y =   52.000   Box Z =   52.000
     Alpha =   90.000   Beta  =   90.000   Gamma =   90.000
     NFFT1 =   54       NFFT2 =   54       NFFT3 =   54
     Cutoff=   10.000   Tol   =0.100E-04
     Ewald Coefficient =  0.27511
     Interpolation order =    4

--------------------------------------------------------------------------------
   3.  ATOMIC COORDINATES AND VELOCITIES
--------------------------------------------------------------------------------

default_name
 begin time read from input coords =   100.000 ps

 Number of triangulated 3-point waters found:        0

     Sum of charges from parm topology file =  -0.00000005
     Forcing neutrality...

--------------------------------------------------------------------------------
   4.  RESULTS
 NSTEP =     1000   TIME(PS) =     101.000  TEMP(K) =   250.26  PRESS =  -314.5
 Etot   =    -24832.2544  EKtot   =      5485.5260  EPtot      =    -30317.7804
 BOND   =        16.5852  ANGLE   =      1642.5967  DIHED      =        93.7215
 1-4 NB =        -1.2913  1-4 EEL =     -1540.1603  VDWAALS    =      3065.0655
 EELEC  =    -33594.2978  EHBOND  =         0.0000  RESTRAINT  =         0.0000
 EKCMT  =      2340.6741  VIRIAL  =      3280.0279  VOLUME     =    138323.9030
                                                    Density    =         0.6827
 Ewald error estimate:   0.1317E-03
 ------------------------------------------------------------------------------

      A V E R A G E S   O V E R 6000000 S T E P S

 NSTEP =  6000000   TIME(PS) =    6100.000  TEMP(K) =   299.99  PRESS =    -2.4
 Etot   =    -22716.0339  EKtot   =      6575.5873  EPtot      =    -29291.6212
 BOND   =        18.4106  ANGLE   =      1782.1377  DIHED      =       100.3434
 1-4 NB =        -1.2808  1-4 EEL =     -1540.6479  VDWAALS    =      2359.6371
 EELEC  =    -32010.2213  EHBOND  =         0.0000  RESTRAINT  =         0.0000
 EKCMT  =      2806.3796  VIRIAL  =      2812.6411  VOLUME     =     90118.0301
                                                    Density    =         1.0484
 Ewald error estimate:   0.1206E-03
 ------------------------------------------------------------------------------

      R M S  F L U C T U A T I O N S

 NSTEP =  6000000   TIME(PS) =    6100.000  TEMP(K) =     3.09  PRESS =   197.5
 Etot   =       131.4595  EKtot   =        67.6571  EPtot      =       105.4301
 BOND   =         4.1195  ANGLE   =        40.4177  DIHED      =         3.9380
 1-4 NB =         0.0247  1-4 EEL =         6.3336  VDWAALS    =        77.4794
 EELEC  =       142.8079  EHBOND  =         0.0000  RESTRAINT  =         0.0000
 EKCMT  =        42.2147  VIRIAL  =       388.7999  VOLUME     =      2553.3678
                                                    Density    =         0.0213
 Ewald error estimate:   0.9116E-04
 ------------------------------------------------------------------------------
