-------------------------------------------------------
          Amber 20 SANDER                              2020
          -------------------------------------------------------

  [-O]verwriting output

File Assignments:

 Here is the input file:

Stage 2 heating from 0 to 300K
 &cntrl
  imin   = 0,
  irest  = 0,
  ntx    = 1,
  ntb    = 1,
  cut    = 10.0,
  ntr    = 1,
  ntc    = 2,
  ntf    = 2,
  tempi  = 0.0,
  temp0  = 300.0,
  ntt    = 3, ig = -1,
  gamma_ln = 0.1,
  nstlim = 100000, dt = 0.001
  ntpr = 1000, ntwx = 1000, ntwr = 1000
 /
 Keep URE fixed
 10.0
 RES 1 1
END
END

--------------------------------------------------------------------------------
   1.  RESOURCE   USE:
--------------------------------------------------------------------------------

 getting box info from netcdf restart file
 NATOM  =    9449 NTYPES =       6 NBONH =    6286 MBONA  =      30
 NTHETH =    3183 MTHETA =      30 NPHIH =     140 MPHIA  =      10
 NHPARM =       0 NPARM  =       0 NNB   =   12742 NRES   =    3133
 NBONA  =      30 NTHETA =      30 NPHIA =      10 NUMBND =       4
 NUMANG =       5 NPTRA  =       4 NATYP =       6 NPHB   =       0
 IFBOX  =       1 NMXRS  =       8 IFCAP =       0 NEXTRA =       0
 NCOPY  =       0

     BOX TYPE: RECTILINEAR
Note: ig = -1. Setting random seed to   834851 based on wallclock time in microseconds
      and disabling the synchronization of random numbers between tasks
      to improve performance.

--------------------------------------------------------------------------------
   2.  CONTROL  DATA  FOR  THE  RUN
--------------------------------------------------------------------------------

default_name

General flags:
     imin    =       0, nmropt  =       0

Nature and format of input:
     ntx     =       1, irest   =       0, ntrx    =       1

Nature and format of output:
     ntxo    =       2, ntpr    =    1000, ntrx    =       1, ntwr    =    1000
     iwrap   =       0, ntwx    =    1000, ntwv    =       0, ntwe    =       0
     ioutfm  =       1, ntwprt  =       0, idecomp =       0, rbornstat=      0

Potential function:
     ntf     =       2, ntb     =       1, igb     =       0, nsnb    =      25
     ipol    =       0, gbsa    =       0, iesp    =       0
     dielc   =   1.00000, cut     =  10.00000, intdiel =   1.00000

Frozen or restrained atoms:
     ibelly  =       0, ntr     =       1
     restraint_wt =   0.00000

Molecular dynamics:
     nstlim  =    100000, nscm    =         0, nrespa  =         1
     t       =   0.00000, dt      =   0.00100, vlimit  =  20.00000

Langevin dynamics temperature regulation:
     ig      =  834851
     temp0   = 300.00000, tempi   =   0.00000, gamma_ln=   0.10000

SHAKE:
     ntc     =       2, jfastw  =       0
     tol     =   0.00001

Ewald parameters:
     verbose =       0, ew_type =       0, nbflag  =       1, use_pme =       1
     vdwmeth =       1, eedmeth =       1, netfrc  =       1
     Box X =   52.000   Box Y =   52.000   Box Z =   52.000
     Alpha =   90.000   Beta  =   90.000   Gamma =   90.000
     NFFT1 =   54       NFFT2 =   54       NFFT3 =   54
     Cutoff=   10.000   Tol   =0.100E-04
     Ewald Coefficient =  0.27511
     Interpolation order =    4

    LOADING THE CONSTRAINED ATOMS AS GROUPS

   5.  REFERENCE ATOM COORDINATES

  defa
    ----- READING GROUP     1; TITLE:
  Keep URE fixed

     GROUP    1 HAS HARMONIC CONSTRAINTS    10.00000
 GRP    1 RES    1 TO     1
      Number of atoms in this group  =     8
    ----- END OF GROUP READ -----

--------------------------------------------------------------------------------
   3.  ATOMIC COORDINATES AND VELOCITIES
--------------------------------------------------------------------------------

default_name
 begin time read from input coords =     0.000 ps

 Number of triangulated 3-point waters found:        0

     Sum of charges from parm topology file =  -0.00000005
     Forcing neutrality...

--------------------------------------------------------------------------------
   4.  RESULTS
 NSTEP =        0   TIME(PS) =       0.000  TEMP(K) =     0.00  PRESS =     0.0
 Etot   =    -38366.3836  EKtot   =         0.0000  EPtot      =    -38366.3836
 BOND   =         8.8585  ANGLE   =      1040.0461  DIHED      =        81.5974
 1-4 NB =        -1.3020  1-4 EEL =     -1534.4595  VDWAALS    =      5801.7250
 EELEC  =    -43762.8491  EHBOND  =         0.0000  RESTRAINT  =         0.0000
 Ewald error estimate:   0.1705E-03
 ------------------------------------------------------------------------------

      A V E R A G E S   O V E R  100000 S T E P S

 NSTEP =   100000   TIME(PS) =     100.000  TEMP(K) =   267.07  PRESS =     0.0
 Etot   =    -23282.5894  EKtot   =      5854.1427  EPtot      =    -29136.7321
 BOND   =        16.8308  ANGLE   =      1662.5805  DIHED      =        97.5770
 1-4 NB =        -1.2833  1-4 EEL =     -1539.6144  VDWAALS    =      2800.4698
 EELEC  =    -32175.3664  EHBOND  =         0.0000  RESTRAINT  =         2.0738
 EAMBER (non-restraint)  =    -29138.8059
 Ewald error estimate:   0.1065E-03
 ------------------------------------------------------------------------------

      R M S  F L U C T U A T I O N S

 NSTEP =   100000   TIME(PS) =     100.000  TEMP(K) =    58.10  PRESS =     0.0
 Etot   =      2768.2354  EKtot   =      1273.4710  EPtot      =      1499.3272
 BOND   =         4.1420  ANGLE   =       160.7984  DIHED      =         5.0914
 1-4 NB =         0.0232  1-4 EEL =         6.1307  VDWAALS    =       605.0478
 EELEC  =      1941.3010  EHBOND  =         0.0000  RESTRAINT  =         1.0525
 EAMBER (non-restraint)  =      1498.2747
 Ewald error estimate:   0.8202E-04
 ------------------------------------------------------------------------------
