-------------------------------------------------------
          Amber 20 SANDER                              2020
          -------------------------------------------------------

  [-O]verwriting output

File Assignments:

 Here is the input file:

Stage 3 equilibration 6ns
 &cntrl
  imin = 0, irest = 1, ntx = 7,
  ntb = 2, pres0 = 1.0, ntp = 1,
  taup = 2.0,
  cut = 10.0, ntr = 0,
  ntc = 2, ntf = 2,
  tempi = 300.0, temp0 = 300.0,
  ntt = 3, ig = -1,
  gamma_ln = 1.0,
  nstlim = 6000000, dt = 0.001,
  ntpr = 1000, ntwx = 1000, ntwr = 1000
 /

--------------------------------------------------------------------------------
   1.  RESOURCE   USE:
--------------------------------------------------------------------------------

 getting box info from netcdf restart file
 NATOM  =   12740 NTYPES =       7 NBONH =    6370 MBONA  =    4250
 NTHETH =   12720 MTHETA =    2140 NPHIH =    6470 MPHIA  =      10
 NHPARM =       0 NPARM  =       0 NNB   =   34010 NRES   =    2120
 NBONA  =    4250 NTHETA =    2140 NPHIA =      10 NUMBND =       6
 NUMANG =       7 NPTRA  =       5 NATYP =       8 NPHB   =       0
 IFBOX  =       1 NMXRS  =       8 IFCAP =       0 NEXTRA =       0
 NCOPY  =       0

     BOX TYPE: RECTILINEAR
Note: ig = -1. Setting random seed to   991843 based on wallclock time in microseconds
      and disabling the synchronization of random numbers between tasks
      to improve performance.

--------------------------------------------------------------------------------
   2.  CONTROL  DATA  FOR  THE  RUN
--------------------------------------------------------------------------------

default_name

General flags:
     imin    =       0, nmropt  =       0

Nature and format of input:
     ntx     =       7, irest   =       1, ntrx    =       1

Nature and format of output:
     ntxo    =       2, ntpr    =    1000, ntrx    =       1, ntwr    =    1000
     iwrap   =       0, ntwx    =    1000, ntwv    =       0, ntwe    =       0
     ioutfm  =       1, ntwprt  =       0, idecomp =       0, rbornstat=      0

Potential function:
     ntf     =       2, ntb     =       2, igb     =       0, nsnb    =      25
     ipol    =       0, gbsa    =       0, iesp    =       0
     dielc   =   1.00000, cut     =  10.00000, intdiel =   1.00000

Frozen or restrained atoms:
     ibelly  =       0, ntr     =       0

Molecular dynamics:
     nstlim  =   6000000, nscm    =      1000, nrespa  =         1
     t       =   0.00000, dt      =   0.00100, vlimit  =  20.00000

Langevin dynamics temperature regulation:
     ig      =  991843
     temp0   = 300.00000, tempi   = 300.00000, gamma_ln=   1.00000

Pressure regulation:
     ntp     =       1
     pres0   =   1.00000, comp    =  44.60000, taup    =   2.00000

SHAKE:
     ntc     =       2, jfastw  =       0
     tol     =   0.00001

Ewald parameters:
     verbose =       0, ew_type =       0, nbflag  =       1, use_pme =       1
     vdwmeth =       1, eedmeth =       1, netfrc  =       1
     Box X =   60.000   Box Y =   60.000   Box Z =   60.000
     Alpha =   90.000   Beta  =   90.000   Gamma =   90.000
     NFFT1 =   60       NFFT2 =   60       NFFT3 =   60
     Cutoff=   10.000   Tol   =0.100E-04
     Ewald Coefficient =  0.27511
     Interpolation order =    4

--------------------------------------------------------------------------------
   3.  ATOMIC COORDINATES AND VELOCITIES
--------------------------------------------------------------------------------

default_name
 begin time read from input coords =   100.000 ps

 Number of triangulated 3-point waters found:        0

     Sum of charges from parm topology file =  -0.00000005
     Forcing neutrality...

--------------------------------------------------------------------------------
   4.  RESULTS
 NSTEP =     1000   TIME(PS) =     101.000  TEMP(K) =   252.11  PRESS =  -977.8
 Etot   =    -19076.7850  EKtot   =      7978.2656  EPtot      =    -27055.0507
 BOND   =      1148.1890  ANGLE   =      3630.0280  DIHED      =        93.4256
 1-4 NB =      -141.1026  1-4 EEL =    -16272.9490  VDWAALS    =    -10137.8925
 EELEC  =     -5374.7493  EHBOND  =         0.0000  RESTRAINT  =         0.0000
 EKCMT  =      1673.3165  VIRIAL  =      6076.2485  VOLUME     =    208547.3366
                                                    Density    =         0.6945
 Ewald error estimate:   0.5336E-03
 ------------------------------------------------------------------------------

      A V E R A G E S   O V E R 6000000 S T E P S

 NSTEP =  6000000   TIME(PS) =    6100.000  TEMP(K) =   299.98  PRESS =     0.0
 Etot   =    -16981.3603  EKtot   =      9493.3332  EPtot      =    -26474.6935
 BOND   =      1309.9802  ANGLE   =      4431.4302  DIHED      =       100.1145
 1-4 NB =      -139.9363  1-4 EEL =    -16272.1026  VDWAALS    =    -10562.5348
 EELEC  =     -5341.6446  EHBOND  =         0.0000  RESTRAINT  =         0.0000
 EKCMT  =      1896.1335  VIRIAL  =      1896.3421  VOLUME     =    189270.1552
                                                    Density    =         0.7653
 Ewald error estimate:   0.4613E-03
 ------------------------------------------------------------------------------

      R M S  F L U C T U A T I O N S

 NSTEP =  6000000   TIME(PS) =    6100.000  TEMP(K) =     2.71  PRESS =    97.7
 Etot   =       125.7443  EKtot   =        85.6845  EPtot      =        82.1891
 BOND   =        28.8785  ANGLE   =        55.1293  DIHED      =         3.8868
 1-4 NB =         0.3485  1-4 EEL =         7.7242  VDWAALS    =        43.5363
 EELEC  =        31.9539  EHBOND  =         0.0000  RESTRAINT  =         0.0000
 EKCMT  =        34.2061  VIRIAL  =       401.6269  VOLUME     =       646.9884
                                                    Density    =         0.0025
 Ewald error estimate:   0.1066E-03
 ------------------------------------------------------------------------------
