-------------------------------------------------------
          Amber 20 SANDER                              2020
          -------------------------------------------------------

  [-O]verwriting output

File Assignments:

 Here is the input file:

Stage 2 heating from 0 to 300K
 &cntrl
  imin   = 0,
  irest  = 0,
  ntx    = 1,
  ntb    = 1,
  cut    = 10.0,
  ntr    = 1,
  ntc    = 2,
  ntf    = 2,
  tempi  = 0.0,
  temp0  = 300.0,
  ntt    = 3, ig = -1,
  gamma_ln = 0.1,
  nstlim = 100000, dt = 0.001
  ntpr = 1000, ntwx = 1000, ntwr = 1000
 /
 Keep URE fixed
 10.0
 RES 1 10
END
END

--------------------------------------------------------------------------------
   1.  RESOURCE   USE:
--------------------------------------------------------------------------------

 getting box info from netcdf restart file
 NATOM  =   12740 NTYPES =       7 NBONH =    6370 MBONA  =    4250
 NTHETH =   12720 MTHETA =    2140 NPHIH =    6470 MPHIA  =      10
 NHPARM =       0 NPARM  =       0 NNB   =   34010 NRES   =    2120
 NBONA  =    4250 NTHETA =    2140 NPHIA =      10 NUMBND =       6
 NUMANG =       7 NPTRA  =       5 NATYP =       8 NPHB   =       0
 IFBOX  =       1 NMXRS  =       8 IFCAP =       0 NEXTRA =       0
 NCOPY  =       0

     BOX TYPE: RECTILINEAR
Note: ig = -1. Setting random seed to   760205 based on wallclock time in microseconds
      and disabling the synchronization of random numbers between tasks
      to improve performance.

--------------------------------------------------------------------------------
   2.  CONTROL  DATA  FOR  THE  RUN
--------------------------------------------------------------------------------

default_name

General flags:
     imin    =       0, nmropt  =       0

Nature and format of input:
     ntx     =       1, irest   =       0, ntrx    =       1

Nature and format of output:
     ntxo    =       2, ntpr    =    1000, ntrx    =       1, ntwr    =    1000
     iwrap   =       0, ntwx    =    1000, ntwv    =       0, ntwe    =       0
     ioutfm  =       1, ntwprt  =       0, idecomp =       0, rbornstat=      0

Potential function:
     ntf     =       2, ntb     =       1, igb     =       0, nsnb    =      25
     ipol    =       0, gbsa    =       0, iesp    =       0
     dielc   =   1.00000, cut     =  10.00000, intdiel =   1.00000

Frozen or restrained atoms:
     ibelly  =       0, ntr     =       1
     restraint_wt =   0.00000

Molecular dynamics:
     nstlim  =    100000, nscm    =         0, nrespa  =         1
     t       =   0.00000, dt      =   0.00100, vlimit  =  20.00000

Langevin dynamics temperature regulation:
     ig      =  760205
     temp0   = 300.00000, tempi   =   0.00000, gamma_ln=   0.10000

SHAKE:
     ntc     =       2, jfastw  =       0
     tol     =   0.00001

Ewald parameters:
     verbose =       0, ew_type =       0, nbflag  =       1, use_pme =       1
     vdwmeth =       1, eedmeth =       1, netfrc  =       1
     Box X =   60.000   Box Y =   60.000   Box Z =   60.000
     Alpha =   90.000   Beta  =   90.000   Gamma =   90.000
     NFFT1 =   60       NFFT2 =   60       NFFT3 =   60
     Cutoff=   10.000   Tol   =0.100E-04
     Ewald Coefficient =  0.27511
     Interpolation order =    4

    LOADING THE CONSTRAINED ATOMS AS GROUPS

   5.  REFERENCE ATOM COORDINATES

  defa
    ----- READING GROUP     1; TITLE:
  Keep URE fixed

     GROUP    1 HAS HARMONIC CONSTRAINTS    10.00000
 GRP    1 RES    1 TO    10
      Number of atoms in this group  =    80
    ----- END OF GROUP READ -----

--------------------------------------------------------------------------------
   3.  ATOMIC COORDINATES AND VELOCITIES
--------------------------------------------------------------------------------

default_name
 begin time read from input coords =     0.000 ps

 Number of triangulated 3-point waters found:        0

     Sum of charges from parm topology file =  -0.00000005
     Forcing neutrality...

--------------------------------------------------------------------------------
   4.  RESULTS
 NSTEP =        0   TIME(PS) =       0.000  TEMP(K) =     0.00  PRESS =     0.0
 Etot   =    -35141.9098  EKtot   =         0.0000  EPtot      =    -35141.9098
 BOND   =        16.6613  ANGLE   =       219.1952  DIHED      =        81.8115
 1-4 NB =      -149.6124  1-4 EEL =    -16227.6548  VDWAALS    =    -12372.0139
 EELEC  =     -6710.2968  EHBOND  =         0.0000  RESTRAINT  =         0.0000
 Ewald error estimate:   0.4363E-03
 ------------------------------------------------------------------------------

      A V E R A G E S   O V E R  100000 S T E P S

 NSTEP =   100000   TIME(PS) =     100.000  TEMP(K) =   269.22  PRESS =     0.0
 Etot   =    -17849.4744  EKtot   =      8519.6136  EPtot      =    -26369.0880
 BOND   =      1176.9407  ANGLE   =      3991.8625  DIHED      =        94.1392
 1-4 NB =      -141.1091  1-4 EEL =    -16263.6487  VDWAALS    =     -9982.7072
 EELEC  =     -5266.4281  EHBOND  =         0.0000  RESTRAINT  =        21.8626
 EAMBER (non-restraint)  =    -26390.9506
 Ewald error estimate:   0.4923E-03
 ------------------------------------------------------------------------------

      R M S  F L U C T U A T I O N S

 NSTEP =   100000   TIME(PS) =     100.000  TEMP(K) =    58.67  PRESS =     0.0
 Etot   =      4018.6468  EKtot   =      1856.5756  EPtot      =      2168.4689
 BOND   =       254.8809  ANGLE   =       856.6141  DIHED      =         4.2853
 1-4 NB =         1.9565  1-4 EEL =        11.0005  VDWAALS    =       689.6015
 EELEC  =       382.7711  EHBOND  =         0.0000  RESTRAINT  =         5.7614
 EAMBER (non-restraint)  =      2162.7075
 Ewald error estimate:   0.1545E-03
 ------------------------------------------------------------------------------
